                                  MODFLOW-2000
      U.S. GEOLOGICAL SURVEY MODULAR FINITE-DIFFERENCE GROUND-WATER FLOW MODEL
                             VERSION 1.10 07/26/2002


 This model run combines GLOBAL and LIST output into this single file.

 GLOBAL LISTING FILE: mytestcase.lst
                         UNIT   26

 OPENING TEST.ba6
 FILE TYPE:BAS6   UNIT    1   STATUS:OLD    
 FORMAT:FORMATTED              ACCESS:SEQUENTIAL          

 OPENING TEST.bc6
 FILE TYPE:BCF6   UNIT   11   STATUS:OLD    
 FORMAT:FORMATTED              ACCESS:SEQUENTIAL          

 OPENING mytestcase.oc
 FILE TYPE:OC   UNIT   10   STATUS:OLD    
 FORMAT:FORMATTED              ACCESS:SEQUENTIAL          

 OPENING mytestcase.ufh
 FILE TYPE:DATA(BINARY)   UNIT   30   STATUS:UNKNOWN
 FORMAT:UNFORMATTED            ACCESS:SEQUENTIAL          

 OPENING mytestcase.ccf
 FILE TYPE:DATA(BINARY)   UNIT   40   STATUS:UNKNOWN
 FORMAT:UNFORMATTED            ACCESS:SEQUENTIAL          

 OPENING head2002.ufh
 FILE TYPE:DATA(BINARY)   UNIT   51   STATUS:UNKNOWN
 FORMAT:UNFORMATTED            ACCESS:SEQUENTIAL          

 OPENING mytestcase.pcg
 FILE TYPE:PCG   UNIT   12   STATUS:OLD    
 FORMAT:FORMATTED              ACCESS:SEQUENTIAL          

 OPENING mytestcase.wel
 FILE TYPE:WEL   UNIT   13   STATUS:OLD    
 FORMAT:FORMATTED              ACCESS:SEQUENTIAL          

 OPENING mytestcase.rch
 FILE TYPE:RCH   UNIT   20   STATUS:OLD    
 FORMAT:FORMATTED              ACCESS:SEQUENTIAL          

 OPENING mytestcase.lmt
 FILE TYPE:LMT6   UNIT   29   STATUS:OLD    
 FORMAT:FORMATTED              ACCESS:SEQUENTIAL          

 OPENING TEST.dis
 FILE TYPE:DIS   UNIT   14   STATUS:OLD    
 FORMAT:FORMATTED              ACCESS:SEQUENTIAL          

 THE FREE FORMAT OPTION HAS BEEN SELECTED

 DISCRETIZATION INPUT DATA READ FROM UNIT   14
    5 LAYERS        66 ROWS        64 COLUMNS
    4 STRESS PERIOD(S) IN SIMULATION
 MODEL TIME UNIT IS YEARS
 MODEL LENGTH UNIT IS UNDEFINED
 THE GROUND-WATER TRANSPORT PROCESS IS INACTIVE

 THE OBSERVATION PROCESS IS INACTIVE
 THE SENSITIVITY PROCESS IS INACTIVE
 THE PARAMETER-ESTIMATION PROCESS IS INACTIVE

 MODE: FORWARD

  Confining bed flag for each layer:
   1   1   1   1   0

     207106  ELEMENTS OF GX ARRAY USED OUT OF     207106
      21120  ELEMENTS OF GZ ARRAY USED OUT OF      21120
      21120  ELEMENTS OF IG ARRAY USED OUT OF      21120



                               DELR
 READING ON UNIT   14 WITH FORMAT: (10F13.0)           



                               DELC
 READING ON UNIT   14 WITH FORMAT: (10F13.0)           

 TOP ELEVATION OF LAYER 1 =   999.990    



             MODEL LAYER BOTTOM EL. FOR LAYER   1
 READING ON UNIT   14 WITH FORMAT: (10F13.0)           

            1           2           3           4           5           6           7           8           9          10
           11          12          13          14          15          16          17          18          19          20
           21          22          23          24          25          26          27          28          29          30
           31          32          33          34          35          36          37          38          39          40
           41          42          43          44          45          46          47          48          49          50
           51          52          53          54          55          56          57          58          59          60
           61          62          63          64
 ........................................................................................................................
   1    0.000       0.000       0.000       0.000       0.000       0.000       0.000       0.000       0.000       0.000    
        0.000       0.000       0.000       0.000       0.000       0.000       0.000       0.000       0.000       0.000    
        0.000       0.000       0.000       0.000       0.000       0.000       0.000       0.000       0.000       0.000    
        0.000       0.000       0.000       0.000       0.000       0.000       0.000       0.000       0.000       0.000    
        0.000       0.000       0.000       0.000       0.000       0.000       0.000       0.000       0.000       0.000    
        0.000       0.000       0.000       0.000       0.000       0.000       0.000       0.000       0.000       0.000    
        0.000       0.000       0.000       0.000    
   2    0.000       489.2       488.7       488.5       488.5       488.5       488.5       488.5       488.5       488.5    
        488.5       488.5       488.4       488.4       488.4       488.3       488.3       488.3       488.3       488.2    
        488.2       488.2       488.2       488.2       488.2       488.1       488.1       488.1       488.1       488.1    
        488.1       488.1       488.1       488.1       488.1       488.1       488.1       488.0       488.0       488.0    
        488.0       488.0       488.0       488.0       488.0       488.0       487.9       487.9       487.9       487.8    
        487.8       487.8       487.7       487.7       487.6       487.6       487.5       487.4       487.2       486.9    
        486.6       486.0       485.6       0.000    
   3    0.000       491.1       491.0       490.8       490.7       490.7       490.7       490.7       490.6       490.6    
        490.6       490.6       490.6       490.5       490.5       490.5       490.5       490.4       490.4       490.4    
        490.4       490.4       490.4       490.4       490.4       490.4       490.4       490.4       490.4       490.4    
        490.4       490.4       490.4       490.4       490.4       490.4       490.4       490.4       490.4       490.4    
        490.4       490.4       490.4       490.4       490.4       490.4       490.4       490.4       490.4       490.4    
        490.4       490.4       490.4       490.3       490.3       490.3       490.2       490.2       490.0       489.8    
        489.4       488.6       488.2       0.000    
   4    0.000       492.7       492.7       492.6       492.5       492.4       492.4       492.3       492.3       492.2    
        492.2       492.1       492.1       492.1       492.0       492.0       492.0       492.0       492.0       492.0    
        492.0       492.0       492.0       492.0       492.0       492.0       492.0       492.0       492.0       492.0    
        492.0       492.0       492.1       492.1       492.1       492.1       492.1       492.1       492.1       492.1    
        492.1       492.1       492.1       492.1       492.1       492.2       492.2       492.2       492.2       492.2    
        492.3       492.3       492.3       492.3       492.4       492.4       492.4       492.4       492.3       492.1    
        491.7       491.0       490.6       0.000    
   5    0.000       493.6       493.8       493.8       493.7       493.6       493.4       493.3       493.2       493.1    
        493.1       493.0       493.0       492.9       492.9       492.9       492.9       492.9       492.9       492.9    
        492.9       492.9       492.9       492.9       492.9       492.9       493.0       493.0       493.0       493.0    
        493.0       493.0       493.0       493.0       493.0       493.0       493.0       493.0       493.1       493.1    
        493.1       493.1       493.1       493.1       493.2       493.2       493.2       493.3       493.3       493.4    
        493.4       493.5       493.5       493.5       493.6       493.7       493.7       493.7       493.7       493.6    
        493.2       492.7       492.5       0.000    
   6    0.000       494.2       494.4       494.5       494.4       494.2       494.1       493.9       493.7       493.6    
        493.5       493.4       493.3       493.3       493.2       493.2       493.2       493.2       493.2       493.3    
        493.3       493.3       493.3       493.3       493.3       493.3       493.4       493.4       493.4       493.4    
        493.4       493.4       493.4       493.4       493.4       493.5       493.5       493.5       493.5       493.5    
        493.5       493.6       493.6       493.6       493.6       493.7       493.7       493.8       493.8       493.9    
        494.0       494.1       494.1       494.2       494.3       494.3       494.4       494.5       494.5       494.4    
        494.1       493.9       493.8       0.000    
   7    0.000       494.6       494.7       494.8       494.8       494.6       494.3       494.1       493.8       493.7    
        493.5       493.4       493.3       493.3       493.2       493.2       493.1       493.1       493.1       493.1    
        493.1       493.2       493.2       493.2       493.2       493.3       493.3       493.3       493.3       493.3    
        493.3       493.4       493.4       493.4       493.4       493.5       493.5       493.5       493.6       493.6    
        493.6       493.6       493.7       493.7       493.8       493.8       493.9       494.0       494.0       494.1    
        494.2       494.3       494.4       494.5       494.6       494.7       494.8       494.8       494.9       494.8    
        494.7       494.6       494.6       0.000    
   8    0.000       494.8       494.9       495.0       494.9       494.7       494.4       494.1       493.8       493.6    
        493.4       493.3       493.2       493.1       493.0       492.9       492.8       492.8       492.8       492.8    
        492.8       492.8       492.8       492.9       492.9       492.9       492.9       492.9       493.0       493.0    
        493.0       493.0       493.0       493.1       493.1       493.1       493.2       493.2       493.3       493.3    
        493.3       493.3       493.4       493.4       493.5       493.6       493.7       493.8       493.9       494.1    
        494.2       494.3       494.4       494.6       494.7       494.8       494.9       495.0       495.0       495.0    
        494.9       494.9       494.9       0.000    
   9    0.000       494.9       495.0       495.0       495.0       494.7       494.4       494.0       493.7       493.4    
        493.2       493.1       492.9       492.7       492.6       492.5       492.5       492.4       492.4       492.4    
        492.4       492.4       492.4       492.4       492.4       492.5       492.5       492.5       492.5       492.5    
        492.5       492.6       492.6       492.6       492.6       492.7       492.7       492.8       492.8       492.8    
        492.9       492.9       492.9       493.0       493.1       493.2       493.3       493.4       493.6       493.8    
        493.9       494.1       494.2       494.4       494.6       494.7       494.9       495.0       495.0       495.0    
        495.0       495.0       494.7       0.000    
  10    0.000       495.0       495.0       495.0       494.9       494.6       494.2       493.8       493.4       493.2    
        492.9       492.7       492.6       492.4       492.2       492.1       492.0       492.0       491.9       491.9    
        491.9       491.9       491.9       491.9       491.9       491.9       492.0       492.0       492.0       492.0    
        492.0       492.1       492.1       492.1       492.1       492.2       492.2       492.3       492.3       492.3    
        492.4       492.4       492.4       492.5       492.6       492.7       492.8       493.0       493.2       493.4    
        493.6       493.8       493.9       494.1       494.4       494.6       494.9       495.0       494.9       494.7    
        494.5       494.8       494.2       0.000    
  11    0.000       495.0       495.0       495.0       494.8       494.3       493.9       493.5       493.1       492.8    
        492.6       492.4       492.2       492.0       491.8       491.7       491.6       491.5       491.5       491.4    
        491.4       491.4       491.4       491.4       491.4       491.5       491.5       491.5       491.5       491.5    
        491.6       491.6       491.6       491.6       491.6       491.7       491.7       491.8       491.8       491.8    
        491.9       491.9       491.9       492.0       492.1       492.2       492.4       492.5       492.7       493.0    
        493.2       493.4       493.6       493.9       494.2       494.6       494.9       495.0       494.7       494.1    
        493.6       494.5       493.7       0.000    
  12    0.000       495.0       495.0       495.0       494.7       494.1       493.5       492.9       492.6       492.3    
        492.1       491.9       491.7       491.6       491.4       491.3       491.2       491.1       491.1       491.1    
        491.0       491.0       491.0       491.0       491.0       491.0       491.1       491.1       491.1       491.1    
        491.1       491.1       491.2       491.2       491.2       491.2       491.3       491.3       491.4       491.4    
        491.4       491.4       491.5       491.5       491.6       491.8       491.9       492.1       492.3       492.6    
        492.8       493.1       493.4       493.8       494.2       494.7       495.0       495.0       494.2       493.1    
        492.4       494.1       493.2       0.000    
  13    0.000       494.9       494.9       494.9       494.7       494.0       493.1       492.4       491.9       491.6    
        491.4       491.3       491.2       491.1       491.0       491.0       490.9       490.8       490.8       490.7    
        490.7       490.7       490.7       490.7       490.7       490.7       490.7       490.7       490.7       490.8    
        490.8       490.8       490.8       490.8       490.8       490.9       490.9       490.9       491.0       491.0    
        491.0       491.0       491.1       491.1       491.2       491.3       491.5       491.7       491.9       492.2    
        492.5       492.9       493.3       493.8       494.3       494.8       495.0       494.8       493.6       492.0    
        491.2       493.7       492.7       0.000    
  14    0.000       494.8       494.7       494.8       494.6       493.9       492.9       491.9       491.2       490.8    
        490.6       490.5       490.5       490.6       490.6       490.6       490.6       490.6       490.5       490.5    
        490.5       490.5       490.5       490.5       490.5       490.5       490.5       490.5       490.5       490.5    
        490.5       490.5       490.5       490.5       490.6       490.6       490.6       490.6       490.6       490.6    
        490.7       490.7       490.7       490.8       490.8       491.0       491.1       491.3       491.5       491.9    
        492.4       492.8       493.3       493.8       494.3       494.8       495.0       494.6       492.9       490.8    
        490.1       493.3       492.3       0.000    
  15    0.000       494.8       494.6       494.7       494.5       493.8       492.7       491.6       490.7       490.1    
        489.8       489.6       489.6       489.7       490.0       490.2       490.3       490.3       490.3       490.3    
        490.3       490.3       490.3       490.3       490.3       490.4       490.4       490.4       490.4       490.4    
        490.4       490.4       490.4       490.3       490.3       490.3       490.3       490.3       490.3       490.3    
        490.4       490.4       490.4       490.4       490.5       490.6       490.7       490.9       491.2       491.6    
        492.2       492.7       493.2       493.8       494.3       494.8       495.0       494.4       492.2       489.7    
        489.3       492.9       491.9       0.000    
  16    0.000       494.7       494.3       494.5       494.3       493.7       492.5       491.3       490.2       489.5    
        489.0       488.8       488.6       488.7       489.0       489.4       489.6       489.8       490.0       490.1    
        490.2       490.2       490.3       490.3       490.3       490.3       490.3       490.3       490.3       490.2    
        490.2       490.2       490.1       490.1       490.0       489.9       489.9       489.9       489.9       489.9    
        489.9       489.9       489.9       489.9       490.0       490.1       490.3       490.5       490.8       491.3    
        491.9       492.5       493.0       493.7       494.3       494.8       495.0       494.0       491.4       488.6    
        488.6       492.6       491.5       0.000    
  17    0.000       494.5       494.0       494.2       494.1       493.5       492.3       491.0       489.8       488.8    
        488.2       487.7       487.4       487.3       487.4       488.0       488.4       488.8       489.0       489.3    
        489.5       489.8       490.0       490.5       490.6       490.4       490.2       490.1       490.0       489.8    
        489.7       489.5       489.4       489.2       489.0       488.9       488.9       488.8       488.8       488.9    
        488.9       488.9       488.9       489.0       489.1       489.3       489.5       489.8       490.2       490.8    
        491.5       492.1       492.7       493.4       494.1       494.7       495.0       493.5       490.3       487.1    
        488.0       492.1       491.1       0.000    
  18    0.000       494.4       493.6       493.8       493.7       493.2       492.1       490.7       489.4       488.2    
        487.4       486.8       486.3       486.0       485.9       486.2       486.8       487.3       487.7       488.1    
        488.5       488.9       489.4       490.3       490.8       490.8       490.4       489.9       489.4       489.0    
        488.6       488.3       487.9       487.6       487.3       487.2       487.1       487.2       487.3       487.4    
        487.4       487.5       487.6       487.7       487.9       488.2       488.5       488.9       489.4       490.1    
        490.9       491.6       492.3       493.1       493.9       494.6       494.9       492.9       489.0       485.5    
        487.5       491.6       490.6       0.000    
  19    0.000       494.3       493.3       493.6       493.5       493.0       492.0       490.5       489.1       487.9    
        487.0       486.3       485.7       485.2       484.9       485.0       485.7       486.2       486.6       487.1    
        487.6       488.1       488.8       489.8       490.4       490.6       490.6       490.0       489.2       488.3    
        487.7       487.1       486.5       486.0       485.7       485.6       485.6       485.8       486.0       486.1    
        486.2       486.3       486.5       486.7       487.0       487.3       487.7       488.2       488.7       489.5    
        490.4       491.2       491.9       492.8       493.7       494.5       494.7       492.4       488.2       484.4    
        487.3       491.3       490.3       0.000    
  20    0.000       494.2       493.0       493.3       493.2       492.8       491.8       490.4       488.9       487.7    
        486.7       485.9       485.1       484.5       484.0       483.9       484.5       485.0       485.5       486.0    
        486.5       487.2       488.0       489.1       489.6       489.8       489.7       489.7       489.1       487.9    
        486.7       485.8       485.0       484.3       483.8       483.8       483.9       484.2       484.5       484.7    
        484.9       485.0       485.2       485.5       485.9       486.3       486.8       487.4       488.0       488.9    
        489.8       490.7       491.5       492.5       493.5       494.3       494.4       491.9       487.2       483.2    
        487.0       490.9       490.0       0.000    
  21    0.000       494.1       492.8       493.0       492.9       492.5       491.7       490.2       488.8       487.5    
        486.4       485.5       484.7       483.9       483.3       483.0       483.4       484.0       484.5       485.0    
        485.6       486.3       487.2       488.2       488.7       488.7       488.3       488.2       488.3       487.7    
        486.2       484.8       483.7       482.8       482.2       482.2       482.4       482.8       483.1       483.4    
        483.6       483.8       484.1       484.4       484.9       485.4       486.0       486.6       487.3       488.2    
        489.2       490.2       491.1       492.2       493.2       494.1       494.1       491.4       486.4       482.3    
        486.8       490.6       489.7       0.000    
  22    0.000       494.0       492.5       492.7       492.7       492.3       491.5       490.1       488.6       487.3    
        486.2       485.3       484.4       483.6       482.8       482.4       482.6       483.2       483.7       484.2    
        484.8       485.4       486.4       487.5       488.0       487.8       487.0       486.4       486.9       486.5    
        485.7       484.3       482.9       481.7       480.9       480.9       481.2       481.6       481.9       482.3    
        482.5       482.8       483.1       483.5       484.0       484.6       485.3       485.9       486.6       487.6    
        488.7       489.8       490.8       491.9       493.0       493.9       493.8       490.9       485.7       481.4    
        486.7       490.4       489.4       0.000    
  23    0.000       493.9       492.4       492.5       492.5       492.1       491.3       490.0       488.5       487.2    
        486.1       485.1       484.2       483.3       482.4       481.9       481.9       482.5       483.0       483.5    
        484.0       484.7       485.7       486.8       487.3       487.0       486.1       485.1       485.0       485.9    
        484.4       483.5       482.3       480.9       479.9       479.9       480.2       480.5       480.9       481.3    
        481.6       481.9       482.2       482.6       483.2       483.9       484.6       485.2       486.0       487.0    
        488.2       489.4       490.4       491.6       492.8       493.6       493.5       490.5       485.0       480.7    
        486.5       490.1       489.2       0.000    
  24    0.000       493.8       492.2       492.2       492.2       491.9       491.2       489.8       488.4       487.0    
        485.9       485.0       484.0       483.0       482.1       481.4       481.3       481.8       482.3       482.7    
        483.3       483.9       484.9       486.1       486.6       486.2       485.2       484.3       483.7       485.4    
        484.0       482.0       481.2       480.1       479.0       478.9       479.2       479.6       480.0       480.4    
        480.7       481.0       481.3       481.8       482.4       483.1       483.8       484.5       485.3       486.4    
        487.7       488.9       490.1       491.3       492.5       493.3       493.1       490.0       484.3       480.0    
        486.4       489.9       489.0       0.000    
  25    0.000       493.7       492.0       491.9       492.0       491.7       491.0       489.7       488.3       486.9    
        485.8       484.9       483.9       482.8       481.8       481.0       480.7       481.1       481.6       482.0    
        482.6       483.1       484.2       485.5       485.9       485.5       484.4       483.7       483.3       482.3    
        485.1       481.3       479.6       478.9       478.2       478.1       478.4       478.7       479.1       479.5    
        479.8       480.1       480.4       480.9       481.6       482.3       483.0       483.7       484.5       485.8    
        487.2       488.5       489.7       491.0       492.2       493.0       492.8       489.5       483.6       479.2    
        486.2       489.7       488.8       0.000    
  26    0.000       493.6       491.8       491.6       491.7       491.4       490.8       489.6       488.1       486.8    
        485.7       484.7       483.7       482.7       481.6       480.7       480.2       480.5       480.9       481.3    
        481.8       482.4       483.6       484.9       485.2       484.6       483.7       482.9       482.0       480.3    
        481.4       483.3       478.7       477.4       477.0       477.3       477.6       477.9       478.3       478.7    
        479.0       479.3       479.6       480.1       480.8       481.5       482.2       482.9       483.8       485.1    
        486.7       488.0       489.3       490.7       491.9       492.7       492.4       489.0       482.9       478.5    
        486.1       489.4       488.6       0.000    
  27    0.000       493.5       491.6       491.3       491.4       491.2       490.6       489.4       488.0       486.7    
        485.6       484.6       483.6       482.5       481.4       480.4       479.8       479.9       480.3       480.7    
        481.1       481.7       483.1       484.3       484.6       483.9       483.1       482.4       480.7       479.4    
        474.6       477.7       480.3       476.5       475.8       476.3       476.8       477.2       477.6       477.9    
        478.2       478.5       478.8       479.3       479.9       480.6       481.4       482.1       482.9       484.4    
        486.1       487.6       488.9       490.3       491.5       492.3       492.0       488.5       482.2       477.7    
        485.9       489.2       488.3       0.000    
  28    0.000       493.4       491.3       491.0       491.1       490.9       490.3       489.3       487.9       486.6    
        485.5       484.5       483.5       482.5       481.3       480.2       479.5       479.4       479.7       480.1    
        480.4       481.2       482.7       483.9       484.1       483.5       482.8       482.0       480.3       479.2    
        475.2       469.5       473.9       477.0       475.0       475.3       475.9       476.5       476.9       477.2    
        477.5       477.7       478.0       478.5       479.1       479.8       480.5       481.1       482.1       483.7    
        485.5       487.0       488.4       489.8       491.0       491.9       491.5       487.9       481.5       476.9    
        485.8       488.9       488.1       0.000    
  29    0.000       493.3       491.1       490.6       490.8       490.6       490.1       489.1       487.7       486.4    
        485.4       484.4       483.5       482.4       481.2       480.0       479.2       478.9       479.2       479.5    
        479.8       480.9       482.5       483.6       483.7       483.3       482.7       481.7       480.2       479.3    
        477.2       468.9       468.0       472.7       474.6       474.6       475.1       475.7       476.1       476.5    
        476.8       477.0       477.3       477.7       478.3       478.8       479.5       480.2       481.2       483.0    
        484.9       486.5       487.9       489.4       490.6       491.5       491.0       487.2       480.7       476.2    
        485.6       488.7       487.9       0.000    
  30    0.000       493.2       490.9       490.3       490.4       490.3       489.8       488.9       487.6       486.3    
        485.3       484.4       483.4       482.4       481.2       480.0       479.0       478.5       478.8       479.0    
        479.4       480.8       482.5       483.5       483.6       483.2       482.6       481.5       480.4       479.6    
        478.7       477.3       473.3       471.2       473.5       474.3       474.5       474.9       475.4       475.8    
        476.1       476.3       476.6       476.9       477.4       477.9       478.5       479.2       480.3       482.2    
        484.2       485.9       487.4       488.8       490.1       491.0       490.5       486.6       479.9       475.4    
        485.4       488.4       487.6       0.000    
  31    0.000       493.1       490.7       489.9       490.1       490.0       489.6       488.7       487.4       486.2    
        485.2       484.3       483.4       482.3       481.2       480.0       478.8       478.3       478.4       478.6    
        479.1       480.9       482.7       483.5       483.6       483.2       482.4       481.5       480.6       479.8    
        479.1       478.9       477.5       470.2       471.9       474.2       474.3       474.5       474.8       475.1    
        475.4       475.6       475.9       476.2       476.6       477.0       477.5       478.2       479.4       481.5    
        483.6       485.3       486.8       488.3       489.6       490.6       490.0       486.0       479.2       474.7    
        485.2       488.1       487.4       0.000    
  32    0.000       493.0       490.5       489.5       489.7       489.7       489.3       488.5       487.3       486.1    
        485.1       484.2       483.3       482.3       481.3       480.1       478.8       478.1       478.1       478.3    
        479.1       481.2       482.9       483.6       483.7       483.3       482.5       481.7       480.7       479.4    
        478.1       476.6       473.5       469.1       469.2       473.6       474.1       474.2       474.4       474.6    
        474.8       475.0       475.2       475.5       475.7       476.0       476.4       477.2       478.5       480.7    
        482.9       484.7       486.2       487.7       489.1       490.1       489.5       485.3       478.4       474.0    
        485.0       487.9       487.2       0.000    
  33    0.000       492.8       490.3       489.2       489.4       489.3       489.0       488.3       487.1       485.9    
        485.0       484.1       483.3       482.3       481.3       480.2       478.8       478.0       477.9       478.0    
        479.3       481.8       483.3       483.8       483.8       483.3       482.7       482.0       481.0       479.7    
        478.2       476.2       473.3       469.9       468.3       471.7       473.8       474.1       474.2       474.3    
        474.4       474.5       474.6       474.8       474.9       475.1       475.4       476.2       477.6       479.9    
        482.2       484.0       485.5       487.1       488.6       489.6       488.9       484.6       477.7       473.4    
        484.8       487.6       486.9       0.000    
  34    0.000       492.7       490.0       488.8       489.0       489.0       488.7       488.0       486.9       485.8    
        484.9       484.1       483.2       482.4       481.4       480.3       479.0       477.9       477.7       477.9    
        479.9       482.5       483.7       484.0       483.8       483.4       482.9       482.3       481.4       480.1    
        478.6       476.4       473.8       470.7       468.8       469.4       473.2       473.8       474.0       474.1    
        474.2       474.2       474.2       474.2       474.1       474.1       474.4       475.2       476.7       479.1    
        481.4       483.3       484.9       486.6       488.1       489.1       488.4       483.9       476.9       472.8    
        484.6       487.4       486.7       0.000    
  35    0.000       492.6       489.8       488.4       488.6       488.6       488.4       487.8       486.8       485.7    
        484.8       484.0       483.2       482.4       481.5       480.5       479.2       478.0       477.6       478.2    
        481.2       483.4       483.9       484.0       483.7       483.2       482.6       481.9       480.8       479.5    
        477.8       475.9       473.7       471.2       469.4       469.0       471.9       473.4       473.8       473.9    
        473.9       473.9       473.8       473.6       473.4       473.2       473.3       474.3       475.9       478.3    
        480.6       482.5       484.2       486.0       487.5       488.5       487.8       483.2       476.1       472.2    
        484.3       487.1       486.4       0.000    
  36    0.000       492.4       489.5       487.9       488.1       488.2       488.0       487.5       486.6       485.5    
        484.6       483.9       483.2       482.4       481.6       480.7       479.6       478.1       477.5       481.4    
        483.4       484.0       484.0       483.8       483.3       482.5       481.7       480.7       479.4       477.7    
        475.9       473.8       471.7       469.8       468.6       469.4       468.9       472.5       473.4       473.6    
        473.6       473.6       473.4       473.0       472.5       472.1       472.2       473.3       474.9       477.3    
        479.7       481.7       483.4       485.2       486.8       487.9       487.0       482.4       475.2       471.5    
        484.0       486.7       486.1       0.000    
  37    0.000       492.2       489.2       487.3       487.4       487.6       487.5       487.1       486.3       485.3    
        484.5       483.8       483.1       482.4       481.8       481.0       480.1       478.6       477.9       483.7    
        484.0       484.0       483.7       483.2       482.5       481.6       480.6       479.5       478.0       476.2    
        474.2       472.1       470.1       468.0       466.2       466.1       469.7       470.0       472.6       473.2    
        473.3       473.1       472.8       472.2       471.4       470.8       471.1       472.1       473.8       476.2    
        478.7       480.7       482.5       484.3       485.9       487.0       486.1       481.3       474.1       470.8    
        483.7       486.3       485.8       0.000    
  38    0.000       491.9       488.7       486.6       486.6       486.9       486.9       486.6       486.0       485.1    
        484.3       483.7       483.1       482.5       481.9       481.4       480.7       479.7       479.0       482.6    
        483.8       483.7       483.2       482.5       481.6       480.5       479.4       478.2       476.6       474.8    
        472.8       470.9       469.0       467.1       465.2       463.9       463.5       466.6       470.6       472.6    
        472.9       472.6       472.0       471.0       469.9       469.3       469.9       471.0       472.6       475.0    
        477.5       479.5       481.3       483.1       484.8       485.9       485.0       480.0       472.7       470.0    
        483.2       485.8       485.3       0.000    
  39    0.000       491.6       488.3       485.9       485.7       486.1       486.2       486.1       485.6       484.8    
        484.1       483.6       483.0       482.5       482.1       481.7       481.4       481.2       480.7       482.6    
        483.6       483.4       482.7       481.8       480.7       479.4       478.2       476.9       475.2       473.4    
        471.5       469.7       467.9       466.1       464.4       463.1       462.4       462.4       467.0       471.4    
        472.8       472.6       471.6       469.8       468.4       468.0       468.7       469.9       471.5       473.8    
        476.2       478.2       480.0       481.9       483.6       484.7       483.7       478.6       471.3       469.2    
        482.8       485.3       484.9       0.000    
  40    0.000       491.3       487.7       485.0       484.7       485.1       485.4       485.4       485.1       484.4    
        483.9       483.4       482.9       482.5       482.2       482.1       482.2       482.4       482.4       483.1    
        483.5       483.0       482.1       480.9       479.5       478.0       476.6       475.2       473.5       471.7    
        469.9       468.1       466.4       464.6       462.9       461.6       461.0       461.1       462.8       465.8    
        471.2       473.3       472.1       468.9       467.1       467.0       467.7       468.8       470.3       472.5    
        474.8       476.7       478.5       480.4       482.1       483.2       482.1       477.0       469.7       468.3    
        482.2       484.7       484.3       0.000    
  41    0.000       490.9       487.1       484.1       483.5       484.0       484.5       484.7       484.5       484.0    
        483.6       483.2       482.8       482.6       482.4       482.4       482.7       483.0       483.3       483.5    
        483.3       482.5       481.2       479.6       477.8       476.2       474.7       473.3       471.7       469.9    
        468.2       466.6       464.9       463.3       461.5       459.9       458.9       458.5       458.9       461.6    
        464.6       466.7       473.2       468.6       466.2       466.4       467.0       468.0       469.3       471.3    
        473.4       475.2       477.0       478.9       480.5       481.5       480.5       475.2       468.0       467.5    
        481.6       484.0       483.7       0.000    
  42    0.000       490.4       486.5       483.2       482.3       482.9       483.5       483.9       483.9       483.6    
        483.2       482.9       482.7       482.5       482.5       482.7       482.9       483.2       483.4       483.5    
        483.0       481.7       480.2       478.4       476.5       474.8       473.3       472.0       470.4       468.8    
        467.2       465.6       464.1       462.5       460.7       459.0       457.6       456.6       456.1       456.2    
        457.8       457.2       465.8       465.5       465.7       466.0       466.6       467.4       468.5       470.3    
        472.2       473.9       475.5       477.3       478.9       479.8       478.8       473.5       466.4       466.8    
        481.0       483.4       483.1       0.000    
  43    0.000       490.0       485.9       482.3       481.2       481.8       482.6       483.1       483.3       483.1    
        482.9       482.7       482.5       482.5       482.6       482.8       483.0       483.2       483.4       483.4    
        482.8       481.5       479.8       477.8       475.9       474.2       472.7       471.4       469.8       468.2    
        466.7       465.2       463.8       462.2       460.5       458.8       457.4       456.4       455.7       455.4    
        455.6       458.9       461.5       464.8       465.3       465.7       466.2       466.8       467.8       469.4    
        471.1       472.6       474.1       475.8       477.3       478.2       477.1       471.9       464.9       466.1    
        480.4       482.7       482.6       0.000    
  44    0.000       489.5       485.1       481.4       479.9       480.5       481.5       482.2       482.5       482.5    
        482.4       482.3       482.3       482.4       482.5       482.7       482.9       483.1       483.2       483.1    
        482.5       481.2       479.5       477.6       475.7       474.0       472.6       471.3       469.8       468.3    
        466.8       465.4       464.0       462.5       460.9       459.2       457.9       457.1       456.9       457.0    
        457.1       457.5       458.7       461.6       463.8       464.8       465.5       466.1       467.0       468.4    
        469.9       471.2       472.6       474.1       475.5       476.2       475.2       470.1       463.3       465.4    
        479.6       482.0       481.9       0.000    
  45    0.000       488.9       484.3       480.2       478.3       478.9       480.0       480.9       481.5       481.8    
        481.8       481.8       481.9       482.1       482.3       482.5       482.7       482.8       482.8       482.6    
        482.1       480.8       479.3       477.4       475.7       474.1       472.7       471.5       470.0       468.6    
        467.2       465.8       464.5       463.2       461.9       460.6       459.6       458.8       458.2       458.0    
        458.1       458.5       459.2       460.7       462.0       463.2       464.3       465.1       465.9       467.1    
        468.4       469.6       470.7       472.0       473.2       473.8       472.8       468.0       461.5       464.6    
        478.6       481.1       481.2       0.000    
  46    0.000       488.1       483.1       478.8       476.5       476.9       478.2       479.3       480.2       480.7    
        480.9       481.1       481.3       481.6       481.8       482.0       482.1       482.2       482.1       481.9    
        481.3       480.2       478.8       477.2       475.6       474.1       472.8       471.7       470.4       469.1    
        468.0       466.9       465.8       464.7       463.5       462.2       461.1       460.1       459.4       459.1    
        459.0       459.2       459.5       460.2       460.9       461.7       462.6       463.5       464.5       465.5    
        466.6       467.5       468.5       469.5       470.4       470.8       469.9       465.5       459.4       463.6    
        477.3       480.1       480.2       0.000    
  47    0.000       487.1       481.8       477.2       474.5       474.6       476.0       477.4       478.5       479.2    
        479.7       480.0       480.4       480.7       481.0       481.2       481.3       481.3       481.2       480.9    
        480.4       479.4       478.1       476.6       475.2       474.0       472.9       472.0       471.0       469.9    
        468.9       467.9       467.0       465.9       464.7       463.4       462.2       461.1       460.3       459.8    
        459.5       459.4       459.4       459.6       459.9       460.3       460.9       461.6       462.4       463.5    
        464.5       465.2       465.9       466.7       467.3       467.4       466.6       462.9       457.4       462.6    
        475.9       478.8       479.2       0.000    
  48    0.000       486.0       480.5       475.6       472.6       472.3       473.7       475.3       476.7       477.6    
        478.3       478.8       479.2       479.7       480.0       480.2       480.3       480.3       480.1       479.8    
        479.2       478.3       477.1       475.8       474.6       473.6       472.7       472.0       471.1       470.1    
        469.2       468.3       467.4       466.4       465.2       463.9       462.7       461.5       460.6       459.9    
        459.5       459.2       459.0       458.9       458.9       459.0       459.4       459.8       460.4       461.3    
        462.1       462.8       463.3       463.8       464.1       464.0       463.3       460.4       455.5       461.7    
        474.4       477.6       478.1       0.000    
  49    0.000       484.7       478.9       473.8       470.6       469.8       471.2       473.0       474.5       475.7    
        476.6       477.2       477.7       478.2       478.6       478.9       478.9       478.8       478.6       478.2    
        477.7       476.8       475.7       474.6       473.5       472.6       471.9       471.2       470.4       469.6    
        468.7       467.9       467.0       466.1       465.0       463.7       462.5       461.3       460.3       459.6    
        459.0       458.7       458.3       457.9       457.7       457.6       457.7       457.9       458.3       458.8    
        459.5       460.1       460.4       460.7       460.9       460.6       459.8       457.8       453.8       460.6    
        472.8       476.3       476.9       0.000    
  50    0.000       483.0       476.8       471.6       468.1       466.9       468.0       469.9       471.6       473.0    
        474.1       474.9       475.5       476.1       476.5       476.8       476.8       476.6       476.3       475.9    
        475.3       474.4       473.4       472.4       471.4       470.6       469.9       469.3       468.5       467.8    
        467.1       466.3       465.6       464.7       463.7       462.5       461.3       460.2       459.2       458.5    
        457.9       457.5       457.0       456.5       456.0       455.8       455.7       455.7       455.9       456.1    
        456.5       456.9       457.1       457.2       457.1       456.7       456.0       454.9       452.0       459.3    
        470.7       474.5       475.4       0.000    
  51    0.000       481.1       474.8       469.5       465.9       464.3       465.1       466.9       468.8       470.3    
        471.5       472.4       473.1       473.7       474.2       474.3       474.2       473.9       473.6       473.2    
        472.6       471.7       470.7       469.6       468.7       467.9       467.3       466.7       466.0       465.4    
        464.7       464.0       463.4       462.6       461.7       460.6       459.6       458.6       457.7       457.1    
        456.5       456.1       455.6       455.0       454.5       454.1       454.0       453.9       454.0       454.1    
        454.2       454.4       454.6       454.5       454.3       453.9       453.2       452.5       450.9       458.2    
        468.7       472.9       473.9       0.000    
  52    0.000       479.5       473.0       467.7       464.2       462.4       462.9       464.6       466.4       468.0    
        469.3       470.1       470.9       471.5       471.8       471.9       471.7       471.5       471.1       470.6    
        470.0       469.0       468.0       467.0       466.1       465.4       464.8       464.2       463.6       463.0    
        462.4       461.8       461.2       460.5       459.7       458.8       457.9       457.1       456.3       455.7    
        455.3       454.9       454.5       453.9       453.3       453.0       452.8       452.7       452.7       452.7    
        452.8       452.9       453.0       452.9       452.6       452.2       451.6       451.0       450.3       457.3    
        467.1       471.5       472.7       0.000    
  53    0.000       478.2       471.6       466.3       462.8       461.0       461.2       462.7       464.5       466.1    
        467.4       468.2       469.0       469.5       469.8       469.8       469.6       469.3       468.9       468.3    
        467.6       466.6       465.6       464.7       463.8       463.1       462.6       462.1       461.5       461.0    
        460.4       459.9       459.4       458.8       458.1       457.3       456.5       455.8       455.2       454.7    
        454.3       454.0       453.6       453.1       452.5       452.2       452.0       451.9       451.9       451.9    
        451.9       451.9       452.0       451.9       451.6       451.2       450.8       450.4       450.1       456.5    
        465.9       470.4       471.8       0.000    
  54    0.000       476.9       470.3       465.1       461.7       459.8       459.7       461.2       462.9       464.4    
        465.6       466.5       467.1       467.6       467.8       467.8       467.5       467.2       466.7       466.2    
        465.4       464.4       463.4       462.5       461.7       461.1       460.6       460.2       459.7       459.2    
        458.7       458.2       457.8       457.2       456.6       456.0       455.3       454.7       454.2       453.8    
        453.5       453.2       452.9       452.5       452.0       451.6       451.4       451.3       451.3       451.3    
        451.3       451.3       451.3       451.2       451.0       450.7       450.4       450.1       450.0       455.9    
        464.8       469.5       471.0       0.000    
  55    0.000       475.6       469.0       463.9       460.5       458.6       458.4       459.6       461.2       462.7    
        463.9       464.6       465.2       465.6       465.8       465.7       465.4       465.0       464.5       463.9    
        463.1       462.1       461.2       460.4       459.7       459.1       458.7       458.3       457.9       457.4    
        457.0       456.6       456.2       455.8       455.3       454.8       454.2       453.8       453.3       453.0    
        452.7       452.5       452.3       451.9       451.5       451.2       450.9       450.8       450.8       450.8    
        450.8       450.8       450.8       450.7       450.6       450.4       450.2       450.0       450.0       455.3    
        463.7       468.6       470.3       0.000    
  56    0.000       474.0       467.5       462.5       459.3       457.4       456.9       458.0       459.4       460.7    
        461.8       462.5       463.0       463.3       463.4       463.2       462.9       462.4       461.9       461.2    
        460.4       459.5       458.7       458.0       457.4       457.0       456.6       456.3       456.0       455.6    
        455.3       455.0       454.7       454.3       453.9       453.5       453.1       452.7       452.4       452.2    
        452.0       451.8       451.6       451.4       451.1       450.8       450.6       450.5       450.4       450.4    
        450.4       450.4       450.4       450.3       450.2       450.1       450.0       450.0       450.0       454.7    
        462.5       467.7       469.4       0.000    
  57    0.000       472.1       465.7       460.9       457.9       456.1       455.4       456.2       457.4       458.5    
        459.4       460.0       460.4       460.6       460.6       460.3       459.9       459.4       458.8       458.1    
        457.4       456.6       456.0       455.5       455.1       454.7       454.5       454.2       454.0       453.7    
        453.5       453.3       453.0       452.8       452.5       452.2       452.0       451.7       451.5       451.3    
        451.2       451.1       451.0       450.8       450.6       450.4       450.3       450.2       450.2       450.1    
        450.1       450.1       450.1       450.1       450.1       450.0       450.0       450.0       450.0       453.9    
        461.2       466.7       468.5       0.000    
  58    0.000       469.8       463.6       459.2       456.3       454.7       453.9       454.3       455.2       456.1    
        456.8       457.2       457.6       457.7       457.5       457.1       456.6       456.0       455.4       454.8    
        454.3       453.8       453.4       453.1       452.8       452.6       452.4       452.3       452.1       451.9    
        451.8       451.7       451.5       451.4       451.2       451.0       450.9       450.7       450.6       450.5    
        450.4       450.3       450.2       450.1       450.0       449.9       449.8       449.8       449.8       449.9    
        450.0       450.0       450.0       450.0       450.0       450.0       450.0       450.0       450.0       453.1    
        459.9       465.5       467.5       0.000    
  59    0.000       467.2       461.3       457.3       454.8       453.3       452.5       452.6       453.2       453.8    
        454.2       454.5       454.7       454.6       454.3       453.8       453.2       452.7       452.3       452.0    
        451.7       451.5       451.3       451.1       450.9       450.8       450.7       450.7       450.6       450.5    
        450.4       450.3       450.2       450.1       450.0       449.9       449.8       449.6       449.5       449.4    
        449.3       449.3       449.2       449.1       448.9       448.7       448.5       448.4       448.1       448.2    
        448.9       449.6       449.8       449.9       450.0       450.0       450.0       450.0       450.0       452.3    
        458.7       464.4       466.4       0.000    
  60    0.000       464.7       459.1       455.3       453.2       452.0       451.3       451.2       451.5       451.8    
        452.0       452.0       452.0       451.8       451.4       451.0       450.7       450.5       450.3       450.2    
        450.2       450.1       450.0       449.9       449.8       449.7       449.6       449.5       449.4       449.3    
        449.1       449.0       448.9       448.7       448.5       448.2       448.0       447.7       447.4       447.1    
        446.8       446.6       446.3       445.8       445.1       444.2       443.0       441.6       441.6       443.8    
        446.6       448.3       449.2       449.6       449.9       450.0       450.0       450.0       450.0       451.7    
        457.7       463.2       465.2       0.000    
  61    0.000       462.4       457.4       454.0       452.0       450.9       450.4       450.3       450.4       450.4    
        450.4       450.3       450.1       449.9       449.7       449.5       449.3       449.0       448.7       448.5    
        448.4       448.1       447.2       445.9       445.0       444.3       443.8       443.4       443.0       442.6    
        442.2       441.8       441.4       440.9       440.4       439.8       439.1       438.5       437.8       437.2    
        436.7       436.2       435.7       434.9       433.8       432.7       431.8       431.6       433.7       440.2    
        445.1       447.5       448.8       449.5       449.9       450.0       450.1       450.1       450.3       451.5    
        456.8       462.0       464.0       0.000    
  62    0.000       460.3       456.0       453.1       451.4       450.5       450.1       450.0       449.9       449.8    
        449.5       449.1       448.4       447.3       446.0       444.8       443.8       443.1       442.6       442.3    
        442.0       441.8       441.4       440.9       440.2       439.7       439.2       438.7       438.3       438.0    
        437.7       437.5       437.4       437.3       437.2       437.1       437.0       437.0       436.9       436.9    
        436.9       436.8       436.8       436.9       437.0       437.3       437.8       438.5       439.2       444.0    
        448.1       449.3       449.8       450.0       450.2       450.6       451.2       452.0       451.8       451.8    
        456.2       460.9       462.9       0.000    
  63    0.000       458.3       454.9       452.6       451.2       450.5       450.2       450.1       450.0       450.0    
        449.8       449.4       448.7       447.7       446.6       445.8       445.2       445.0       445.0       445.1    
        445.7       446.5       447.0       447.1       447.0       446.9       446.8       446.8       446.7       446.7    
        446.7       446.7       446.8       446.9       447.0       447.3       447.5       447.9       448.2       448.4    
        448.7       448.9       449.1       449.5       449.8       450.1       450.3       450.4       450.4       450.4    
        450.4       450.7       451.2       451.9       453.0       454.6       456.6       458.2       454.6       452.9    
        456.0       460.1       461.9       0.000    
  64    0.000       457.4       455.0       453.3       452.2       451.6       451.2       450.9       450.8       450.7    
        450.6       450.6       450.5       450.6       451.1       451.6       452.1       452.6       453.0       453.3    
        453.6       453.7       453.8       453.7       454.0       454.3       454.7       455.0       455.4       455.6    
        455.8       455.9       456.0       456.0       456.0       456.0       456.0       456.0       456.0       456.0    
        456.0       456.0       456.0       456.0       456.0       456.0       456.1       456.2       456.4       456.8    
        457.5       458.3       459.3       460.8       462.7       465.0       467.3       465.6       459.6       455.2    
        456.6       459.6       461.1       0.000    
  65    0.000       459.5       458.0       456.7       455.8       455.2       454.8       454.5       454.3       454.3    
        454.2       454.2       454.2       454.3       454.4       454.6       454.9       455.2       455.5       455.7    
        456.1       456.4       456.7       457.0       457.3       457.5       457.7       457.8       458.0       458.2    
        458.4       458.6       458.8       459.1       459.3       459.7       460.0       460.3       460.6       460.9    
        461.1       461.3       461.6       462.0       462.5       463.1       463.7       464.3       465.0       466.5    
        469.0       470.5       471.7       472.9       473.8       474.8       475.3       472.6       466.8       459.5    
        458.2       459.7       460.7       0.000    
  66    0.000       0.000       0.000       0.000       0.000       0.000       0.000       0.000       0.000       0.000    
        0.000       0.000       0.000       0.000       0.000       0.000       0.000       0.000       0.000       0.000    
        0.000       0.000       0.000       0.000       0.000       0.000       0.000       0.000       0.000       0.000    
        0.000       0.000       0.000       0.000       0.000       0.000       0.000       0.000       0.000       0.000    
        0.000       0.000       0.000       0.000       0.000       0.000       0.000       0.000       0.000       0.000    
        0.000       0.000       0.000       0.000       0.000       0.000       0.000       0.000       0.000       0.000    
        0.000       0.000       0.000       0.000    



           BOT. EL. OF QUASI-3D BED FOR LAYER   1
 READING ON UNIT   14 WITH FORMAT: (10F13.0)           

            1           2           3           4           5           6           7           8           9          10
           11          12          13          14          15          16          17          18          19          20
           21          22          23          24          25          26          27          28          29          30
           31          32          33          34          35          36          37          38          39          40
           41          42          43          44          45          46          47          48          49          50
           51          52          53          54          55          56          57          58          59          60
           61          62          63          64
 ........................................................................................................................
   1    0.000       0.000       0.000       0.000       0.000       0.000       0.000       0.000       0.000       0.000    
        0.000       0.000       0.000       0.000       0.000       0.000       0.000       0.000       0.000       0.000    
        0.000       0.000       0.000       0.000       0.000       0.000       0.000       0.000       0.000       0.000    
        0.000       0.000       0.000       0.000       0.000       0.000       0.000       0.000       0.000       0.000    
        0.000       0.000       0.000       0.000       0.000       0.000       0.000       0.000       0.000       0.000    
        0.000       0.000       0.000       0.000       0.000       0.000       0.000       0.000       0.000       0.000    
        0.000       0.000       0.000       0.000    
   2    0.000       489.2       488.7       488.5       488.5       488.5       488.5       488.5       488.5       488.5    
        488.5       488.5       488.4       488.4       488.4       488.3       488.3       488.3       488.3       488.2    
        488.2       488.2       488.2       488.2       488.2       488.1       488.1       488.1       488.1       488.1    
        488.1       488.1       488.1       488.1       488.1       488.1       488.1       488.0       488.0       488.0    
        488.0       488.0       488.0       488.0       488.0       488.0       487.9       487.9       487.9       487.8    
        487.8       487.8       487.7       487.7       487.6       487.6       487.5       487.4       487.2       486.9    
        486.6       486.0       485.6       0.000    
   3    0.000       491.1       491.0       490.8       490.7       490.7       490.7       490.7       490.6       490.6    
        490.6       490.6       490.6       490.5       490.5       490.5       490.5       490.4       490.4       490.4    
        490.4       490.4       490.4       490.4       490.4       490.4       490.4       490.4       490.4       490.4    
        490.4       490.4       490.4       490.4       490.4       490.4       490.4       490.4       490.4       490.4    
        490.4       490.4       490.4       490.4       490.4       490.4       490.4       490.4       490.4       490.4    
        490.4       490.4       490.4       490.3       490.3       490.3       490.2       490.2       490.0       489.8    
        489.4       488.6       488.2       0.000    
   4    0.000       492.7       492.7       492.6       492.5       492.4       492.4       492.3       492.3       492.2    
        492.2       492.1       492.1       492.1       492.0       492.0       492.0       492.0       492.0       492.0    
        492.0       492.0       492.0       492.0       492.0       492.0       492.0       492.0       492.0       492.0    
        492.0       492.0       492.1       492.1       492.1       492.1       492.1       492.1       492.1       492.1    
        492.1       492.1       492.1       492.1       492.1       492.2       492.2       492.2       492.2       492.2    
        492.3       492.3       492.3       492.3       492.4       492.4       492.4       492.4       492.3       492.1    
        491.7       491.0       490.6       0.000    
   5    0.000       493.6       493.8       493.8       493.7       493.6       493.4       493.3       493.2       493.1    
        493.1       493.0       493.0       492.9       492.9       492.9       492.9       492.9       492.9       492.9    
        492.9       492.9       492.9       492.9       492.9       492.9       493.0       493.0       493.0       493.0    
        493.0       493.0       493.0       493.0       493.0       493.0       493.0       493.0       493.1       493.1    
        493.1       493.1       493.1       493.1       493.2       493.2       493.2       493.3       493.3       493.4    
        493.4       493.5       493.5       493.5       493.6       493.7       493.7       493.7       493.7       493.6    
        493.2       492.7       492.5       0.000    
   6    0.000       494.2       494.4       494.5       494.4       494.2       494.1       493.9       493.7       493.6    
        493.5       493.4       493.3       493.3       493.2       493.2       493.2       493.2       493.2       493.3    
        493.3       493.3       493.3       493.3       493.3       493.3       493.4       493.4       493.4       493.4    
        493.4       493.4       493.4       493.4       493.4       493.5       493.5       493.5       493.5       493.5    
        493.5       493.6       493.6       493.6       493.6       493.7       493.7       493.8       493.8       493.9    
        494.0       494.1       494.1       494.2       494.3       494.3       494.4       494.5       494.5       494.4    
        494.1       493.9       493.8       0.000    
   7    0.000       494.6       494.7       494.8       494.8       494.6       494.3       494.1       493.8       493.7    
        493.5       493.4       493.3       493.3       493.2       493.2       493.1       493.1       493.1       493.1    
        493.1       493.2       493.2       493.2       493.2       493.3       493.3       493.3       493.3       493.3    
        493.3       493.4       493.4       493.4       493.4       493.5       493.5       493.5       493.6       493.6    
        493.6       493.6       493.7       493.7       493.8       493.8       493.9       494.0       494.0       494.1    
        494.2       494.3       494.4       494.5       494.6       494.7       494.8       494.8       494.9       494.8    
        494.7       494.6       494.6       0.000    
   8    0.000       494.8       494.9       495.0       494.9       494.7       494.4       494.1       493.8       493.6    
        493.4       493.3       493.2       493.1       493.0       492.9       492.8       492.8       492.8       492.8    
        492.8       492.8       492.8       492.9       492.9       492.9       492.9       492.9       493.0       493.0    
        493.0       493.0       493.0       493.1       493.1       493.1       493.2       493.2       493.3       493.3    
        493.3       493.3       493.4       493.4       493.5       493.6       493.7       493.8       493.9       494.1    
        494.2       494.3       494.4       494.6       494.7       494.8       494.9       495.0       495.0       495.0    
        494.9       494.9       494.9       0.000    
   9    0.000       494.9       495.0       495.0       495.0       494.7       494.4       494.0       493.7       493.4    
        493.2       493.1       492.9       492.7       492.6       492.5       492.5       492.4       492.4       492.4    
        492.4       492.4       492.4       492.4       492.4       492.5       492.5       492.5       492.5       492.5    
        492.5       492.6       492.6       492.6       492.6       492.7       492.7       492.8       492.8       492.8    
        492.9       492.9       492.9       493.0       493.1       493.2       493.3       493.4       493.6       493.8    
        493.9       494.1       494.2       494.4       494.6       494.7       494.9       495.0       495.0       495.0    
        495.0       495.0       494.7       0.000    
  10    0.000       495.0       495.0       495.0       494.9       494.6       494.2       493.8       493.4       493.2    
        492.9       492.7       492.6       492.4       492.2       492.1       492.0       492.0       491.9       491.9    
        491.9       491.9       491.9       491.9       491.9       491.9       492.0       492.0       492.0       492.0    
        492.0       492.1       492.1       492.1       492.1       492.2       492.2       492.3       492.3       492.3    
        492.4       492.4       492.4       492.5       492.6       492.7       492.8       493.0       493.2       493.4    
        493.6       493.8       493.9       494.1       494.4       494.6       494.9       495.0       494.9       494.7    
        494.5       494.8       494.2       0.000    
  11    0.000       495.0       495.0       495.0       494.8       494.3       493.9       493.5       493.1       492.8    
        492.6       492.4       492.2       492.0       491.8       491.7       491.6       491.5       491.5       491.4    
        491.4       491.4       491.4       491.4       491.4       491.5       491.5       491.5       491.5       491.5    
        491.6       491.6       491.6       491.6       491.6       491.7       491.7       491.8       491.8       491.8    
        491.9       491.9       491.9       492.0       492.1       492.2       492.4       492.5       492.7       493.0    
        493.2       493.4       493.6       493.9       494.2       494.6       494.9       495.0       494.7       494.1    
        493.6       494.5       493.7       0.000    
  12    0.000       495.0       495.0       495.0       494.7       494.1       493.5       492.9       492.6       492.3    
        492.1       491.9       491.7       491.6       491.4       491.3       491.2       491.1       491.1       491.1    
        491.0       491.0       491.0       491.0       491.0       491.0       491.1       491.1       491.1       491.1    
        491.1       491.1       491.2       491.2       491.2       491.2       491.3       491.3       491.4       491.4    
        491.4       491.4       491.5       491.5       491.6       491.8       491.9       492.1       492.3       492.6    
        492.8       493.1       493.4       493.8       494.2       494.7       495.0       495.0       494.2       493.1    
        492.4       494.1       493.2       0.000    
  13    0.000       494.9       494.9       494.9       494.7       494.0       493.1       492.4       491.9       491.6    
        491.4       491.3       491.2       491.1       491.0       491.0       490.9       490.8       490.8       490.7    
        490.7       490.7       490.7       490.7       490.7       490.7       490.7       490.7       490.7       490.8    
        490.8       490.8       490.8       490.8       490.8       490.9       490.9       490.9       491.0       491.0    
        491.0       491.0       491.1       491.1       491.2       491.3       491.5       491.7       491.9       492.2    
        492.5       492.9       493.3       493.8       494.3       494.8       495.0       494.8       493.6       492.0    
        491.2       493.7       492.7       0.000    
  14    0.000       494.8       494.7       494.8       494.6       493.9       492.9       491.9       491.2       490.8    
        490.6       490.5       490.5       490.6       490.6       490.6       490.6       490.6       490.5       490.5    
        490.5       490.5       490.5       490.5       490.5       490.5       490.5       490.5       490.5       490.5    
        490.5       490.5       490.5       490.5       490.6       490.6       490.6       490.6       490.6       490.6    
        490.7       490.7       490.7       490.8       490.8       491.0       491.1       491.3       491.5       491.9    
        492.4       492.8       493.3       493.8       494.3       494.8       495.0       494.6       492.9       490.8    
        490.1       493.3       492.3       0.000    
  15    0.000       494.8       494.6       494.7       494.5       493.8       492.7       491.6       490.7       490.1    
        489.8       489.6       489.6       489.7       490.0       490.2       490.3       490.3       490.3       490.3    
        490.3       490.3       490.3       490.3       490.3       490.4       490.4       490.4       490.4       490.4    
        490.4       490.4       490.4       490.3       490.3       490.3       490.3       490.3       490.3       490.3    
        490.4       490.4       490.4       490.4       490.5       490.6       490.7       490.9       491.2       491.6    
        492.2       492.7       493.2       493.8       494.3       494.8       495.0       494.4       492.2       489.7    
        489.3       492.9       491.9       0.000    
  16    0.000       494.7       494.3       494.5       494.3       493.7       492.5       491.3       490.2       489.5    
        489.0       488.8       488.6       488.7       489.0       489.4       489.6       489.8       490.0       490.1    
        490.2       490.2       490.3       490.3       490.3       490.3       490.3       490.3       490.3       490.2    
        490.2       490.2       490.1       490.1       490.0       489.9       489.9       489.9       489.9       489.9    
        489.9       489.9       489.9       489.9       490.0       490.1       490.3       490.5       490.8       491.3    
        491.9       492.5       493.0       493.7       494.3       494.8       495.0       494.0       491.4       488.6    
        488.6       492.6       491.5       0.000    
  17    0.000       494.5       494.0       494.2       494.1       493.5       492.3       491.0       489.8       488.8    
        488.2       487.7       487.4       487.3       487.4       488.0       488.4       488.8       489.0       489.3    
        489.5       489.8       490.0       490.5       490.6       490.4       490.2       490.1       490.0       489.8    
        489.7       489.5       489.4       489.2       489.0       488.9       488.9       488.8       488.8       488.9    
        488.9       488.9       488.9       489.0       489.1       489.3       489.5       489.8       490.2       490.8    
        491.5       492.1       492.7       493.4       494.1       494.7       495.0       493.5       490.3       487.1    
        488.0       492.1       491.1       0.000    
  18    0.000       494.4       493.6       493.8       493.7       493.2       492.1       490.7       489.4       488.2    
        487.4       486.8       486.3       486.0       485.9       486.2       486.8       487.3       487.7       488.1    
        488.5       488.9       489.4       490.3       490.8       490.8       490.4       489.9       489.4       489.0    
        488.6       488.3       487.9       487.6       487.3       487.2       487.1       487.2       487.3       487.4    
        487.4       487.5       487.6       487.7       487.9       488.2       488.5       488.9       489.4       490.1    
        490.9       491.6       492.3       493.1       493.9       494.6       494.9       492.9       489.0       485.5    
        487.5       491.6       490.6       0.000    
  19    0.000       494.3       493.3       493.6       493.5       493.0       492.0       490.5       489.1       487.9    
        487.0       486.3       485.7       485.2       484.9       485.0       485.7       486.2       486.6       487.1    
        487.6       488.1       488.8       489.8       490.4       490.6       490.6       490.0       489.2       488.3    
        487.7       487.1       486.5       486.0       485.7       485.6       485.6       485.8       486.0       486.1    
        486.2       486.3       486.5       486.7       487.0       487.3       487.7       488.2       488.7       489.5    
        490.4       491.2       491.9       492.8       493.7       494.5       494.7       492.4       488.2       484.4    
        487.3       491.3       490.3       0.000    
  20    0.000       494.2       493.0       493.3       493.2       492.8       491.8       490.4       488.9       487.7    
        486.7       485.9       485.1       484.5       484.0       483.9       484.5       485.0       485.5       486.0    
        486.5       487.2       488.0       489.1       489.6       489.8       489.7       489.7       489.1       487.9    
        486.7       485.8       485.0       484.3       483.8       483.8       483.9       484.2       484.5       484.7    
        484.9       485.0       485.2       485.5       485.9       486.3       486.8       487.4       488.0       488.9    
        489.8       490.7       491.5       492.5       493.5       494.3       494.4       491.9       487.2       483.2    
        487.0       490.9       490.0       0.000    
  21    0.000       494.1       492.8       493.0       492.9       492.5       491.7       490.2       488.8       487.5    
        486.4       485.5       484.7       483.9       483.3       483.0       483.4       484.0       484.5       485.0    
        485.6       486.3       487.2       488.2       488.7       488.7       488.3       488.2       488.3       487.7    
        486.2       484.8       483.7       482.8       482.2       482.2       482.4       482.8       483.1       483.4    
        483.6       483.8       484.1       484.4       484.9       485.4       486.0       486.6       487.3       488.2    
        489.2       490.2       491.1       492.2       493.2       494.1       494.1       491.4       486.4       482.3    
        486.8       490.6       489.7       0.000    
  22    0.000       494.0       492.5       492.7       492.7       492.3       491.5       490.1       488.6       487.3    
        486.2       485.3       484.4       483.6       482.8       482.4       482.6       483.2       483.7       484.2    
        484.8       485.4       486.4       487.5       488.0       487.8       487.0       486.4       486.9       486.5    
        485.7       484.3       482.9       481.7       480.9       480.9       481.2       481.6       481.9       482.3    
        482.5       482.8       483.1       483.5       484.0       484.6       485.3       485.9       486.6       487.6    
        488.7       489.8       490.8       491.9       493.0       493.9       493.8       490.9       485.7       481.4    
        486.7       490.4       489.4       0.000    
  23    0.000       493.9       492.4       492.5       492.5       492.1       491.3       490.0       488.5       487.2    
        486.1       485.1       484.2       483.3       482.4       481.9       481.9       482.5       483.0       483.5    
        484.0       484.7       485.7       486.8       487.3       487.0       486.1       485.1       485.0       485.9    
        484.4       483.5       482.3       480.9       479.9       479.9       480.2       480.5       480.9       481.3    
        481.6       481.9       482.2       482.6       483.2       483.9       484.6       485.2       486.0       487.0    
        488.2       489.4       490.4       491.6       492.8       493.6       493.5       490.5       485.0       480.7    
        486.5       490.1       489.2       0.000    
  24    0.000       493.8       492.2       492.2       492.2       491.9       491.2       489.8       488.4       487.0    
        485.9       485.0       484.0       483.0       482.1       481.4       481.3       481.8       482.3       482.7    
        483.3       483.9       484.9       486.1       486.6       486.2       485.2       484.3       483.7       485.4    
        484.0       482.0       481.2       480.1       479.0       478.9       479.2       479.6       480.0       480.4    
        480.7       481.0       481.3       481.8       482.4       483.1       483.8       484.5       485.3       486.4    
        487.7       488.9       490.1       491.3       492.5       493.3       493.1       490.0       484.3       480.0    
        486.4       489.9       489.0       0.000    
  25    0.000       493.7       492.0       491.9       492.0       491.7       491.0       489.7       488.3       486.9    
        485.8       484.9       483.9       482.8       481.8       481.0       480.7       481.1       481.6       482.0    
        482.6       483.1       484.2       485.5       485.9       485.5       484.4       483.7       483.3       482.3    
        485.1       481.3       479.6       478.9       478.2       478.1       478.4       478.7       479.1       479.5    
        479.8       480.1       480.4       480.9       481.6       482.3       483.0       483.7       484.5       485.8    
        487.2       488.5       489.7       491.0       492.2       493.0       492.8       489.5       483.6       479.2    
        486.2       489.7       488.8       0.000    
  26    0.000       493.6       491.8       491.6       491.7       491.4       490.8       489.6       488.1       486.8    
        485.7       484.7       483.7       482.7       481.6       480.7       480.2       480.5       480.9       481.3    
        481.8       482.4       483.6       484.9       485.2       484.6       483.7       482.9       482.0       480.3    
        481.4       483.3       478.7       477.4       477.0       477.3       477.6       477.9       478.3       478.7    
        479.0       479.3       479.6       480.1       480.8       481.5       482.2       482.9       483.8       485.1    
        486.7       488.0       489.3       490.7       491.9       492.7       492.4       489.0       482.9       478.5    
        486.1       489.4       488.6       0.000    
[...]
       0.1129      6.0578E-02 -5.1464E-03 -5.3831E-02 -9.6597E-02 -0.1258     -0.1297     -0.1333     -0.1393     -0.1482    
      -0.1615     -0.1747     -0.1838     -0.1926     -0.1980     -0.2017     -0.2041     -0.2059     -0.2091     -0.2104    
      -0.2106     -0.2094     -0.2072     -0.2047     -0.2003     -0.1920     -0.1790     -0.1622     -0.1476     -0.1370    
      -0.1294     -0.1243     -0.1203     -0.1153     -0.1108     -0.1236     -0.1605     -0.1750     -0.1844     -0.1776    
      -0.1754     -0.2026     -0.2190     -0.2305     -0.2407     -0.2513     -0.2633     -0.2772     -0.2894     -0.2965    
      -0.2954     -0.2499       0.000      -999.0    
  46   -999.0      0.7492      0.9516      0.7880      0.6164      0.4788      0.3705      0.2829      0.2101      0.1475    
       9.1770E-02  3.8842E-02 -2.7655E-02 -7.3064E-02 -0.1130     -0.1394     -0.1413     -0.1436     -0.1483     -0.1558    
      -0.1670     -0.1782     -0.1859     -0.1933     -0.1977     -0.2002     -0.2016     -0.2024     -0.2038     -0.2035    
      -0.2026     -0.2010     -0.1985     -0.1955     -0.1910     -0.1845     -0.1759     -0.1660     -0.1560     -0.1475    
      -0.1410     -0.1360     -0.1310     -0.1258     -0.1249     -0.1382     -0.1596     -0.1619     -0.1714     -0.1754    
      -0.1843     -0.2084     -0.2230     -0.2339     -0.2441     -0.2549     -0.2671     -0.2804     -0.2919     -0.2990    
      -0.2986     -0.2546       0.000      -999.0    
  47   -999.0      0.5800      0.7980      0.6838      0.5430      0.4240      0.3281      0.2494      0.1830      0.1251    
       7.2198E-02  2.1253E-02 -4.3214E-02 -8.5453E-02 -0.1222     -0.1461     -0.1471     -0.1484     -0.1519     -0.1577    
      -0.1666     -0.1753     -0.1812     -0.1870     -0.1902     -0.1919     -0.1930     -0.1935     -0.1945     -0.1944    
      -0.1939     -0.1929     -0.1916     -0.1899     -0.1874     -0.1839     -0.1796     -0.1752     -0.1710     -0.1677    
      -0.1655     -0.1638     -0.1622     -0.1607     -0.1602     -0.1625     -0.1538     -0.1531     -0.1638     -0.1775    
      -0.1986     -0.2163     -0.2283     -0.2382     -0.2483     -0.2593     -0.2713     -0.2840     -0.2948     -0.3021    
      -0.3025     -0.2603       0.000      -999.0    
  48   -999.0      0.4599      0.6689      0.5910      0.4753      0.3721      0.2870      0.2164      0.1566      0.1038    
       5.5088E-02  7.3514E-03 -5.3936E-02 -9.3329E-02 -0.1272     -0.1493     -0.1495     -0.1498     -0.1521     -0.1565    
      -0.1634     -0.1702     -0.1746     -0.1791     -0.1816     -0.1831     -0.1841     -0.1846     -0.1859     -0.1862    
      -0.1862     -0.1861     -0.1856     -0.1849     -0.1840     -0.1826     -0.1806     -0.1787     -0.1771     -0.1760    
      -0.1754     -0.1752     -0.1751     -0.1750     -0.1754     -0.1770     -0.1788     -0.1832     -0.1906     -0.1991    
      -0.2125     -0.2248     -0.2344     -0.2436     -0.2535     -0.2643     -0.2759     -0.2877     -0.2979     -0.3055    
      -0.3068     -0.2663       0.000      -999.0    
  49   -999.0      0.3639      0.5502      0.5005      0.4073      0.3189      0.2440      0.1813      0.1284      8.2010E-02
       3.8822E-02 -4.5835E-03 -6.2283E-02 -9.8591E-02 -0.1303     -0.1508     -0.1501     -0.1494     -0.1508     -0.1539    
      -0.1592     -0.1644     -0.1677     -0.1713     -0.1734     -0.1748     -0.1757     -0.1764     -0.1778     -0.1785    
      -0.1791     -0.1795     -0.1798     -0.1801     -0.1804     -0.1803     -0.1800     -0.1799     -0.1799     -0.1800    
      -0.1804     -0.1809     -0.1815     -0.1826     -0.1842     -0.1871     -0.1909     -0.1965     -0.2035     -0.2108    
      -0.2223     -0.2330     -0.2417     -0.2505     -0.2601     -0.2704     -0.2812     -0.2920     -0.3016     -0.3094    
      -0.3117     -0.2732       0.000      -999.0    
  50   -999.0      0.2763      0.4277      0.4004      0.3295      0.2571      0.1941      0.1420      9.9629E-02  6.3957E-02
       3.0137E-02 -6.5288E-03 -6.0154E-02 -9.4126E-02 -0.1257     -0.1466     -0.1449     -0.1434     -0.1439     -0.1461    
      -0.1502     -0.1543     -0.1570     -0.1600     -0.1618     -0.1632     -0.1642     -0.1651     -0.1665     -0.1675    
      -0.1685     -0.1695     -0.1702     -0.1713     -0.1724     -0.1735     -0.1744     -0.1754     -0.1765     -0.1776    
      -0.1785     -0.1796     -0.1808     -0.1826     -0.1852     -0.1888     -0.1932     -0.1989     -0.2057     -0.2128    
      -0.2250     -0.2377     -0.2477     -0.2573     -0.2668     -0.2766     -0.2867     -0.2968     -0.3061     -0.3144    
      -0.3182     -0.2822       0.000      -999.0    
  51   -999.0      0.2177      0.3363      0.3203      0.2641      0.2027      0.1476      0.1022      6.8960E-02  4.6208E-02
       2.6033E-02 -1.6222E-03 -5.3334E-02 -8.8778E-02 -0.1250     -0.1495     -0.1471     -0.1449     -0.1449     -0.1468    
      -0.1506     -0.1544     -0.1567     -0.1596     -0.1615     -0.1629     -0.1640     -0.1650     -0.1668     -0.1680    
      -0.1691     -0.1704     -0.1716     -0.1730     -0.1746     -0.1764     -0.1780     -0.1796     -0.1811     -0.1824    
      -0.1837     -0.1849     -0.1863     -0.1885     -0.1913     -0.1950     -0.1991     -0.2040     -0.2095     -0.2133    
      -0.2235     -0.2454     -0.2601     -0.2695     -0.2768     -0.2844     -0.2930     -0.3022     -0.3114     -0.3201    
      -0.3252     -0.2908       0.000      -999.0    
  52   -999.0      0.1812      0.2752      0.2635      0.2158      0.1611      0.1101      6.7525E-02  4.0125E-02  3.2962E-02
       3.6239E-02  2.5253E-02 -3.0946E-02 -7.8078E-02 -0.1253     -0.1565     -0.1535     -0.1507     -0.1503     -0.1519    
      -0.1555     -0.1591     -0.1613     -0.1641     -0.1659     -0.1674     -0.1685     -0.1696     -0.1714     -0.1727    
      -0.1741     -0.1754     -0.1767     -0.1783     -0.1801     -0.1821     -0.1839     -0.1857     -0.1873     -0.1887    
      -0.1898     -0.1910     -0.1925     -0.1946     -0.1976     -0.2011     -0.2050     -0.2093     -0.2136     -0.2119    
      -0.1952     -0.2404     -0.2762     -0.2816     -0.2850     -0.2907     -0.2983     -0.3070     -0.3161     -0.3252    
      -0.3313     -0.2981       0.000      -999.0    
  53   -999.0      0.1572      0.2332      0.2228      0.1802      0.1300      8.1428E-02  3.9678E-02  1.5704E-02  2.7466E-02
       7.7147E-02  0.1121      3.1862E-02 -5.6756E-02 -0.1234     -0.1632     -0.1597     -0.1565     -0.1560     -0.1578    
      -0.1614     -0.1647     -0.1665     -0.1692     -0.1709     -0.1724     -0.1736     -0.1749     -0.1769     -0.1784    
      -0.1798     -0.1813     -0.1827     -0.1843     -0.1863     -0.1884     -0.1903     -0.1925     -0.1943     -0.1957    
      -0.1968     -0.1979     -0.1993     -0.2014     -0.2045     -0.2086     -0.2122     -0.2170     -0.2191     -0.2159    
      -0.2025     -0.2356     -0.2684     -0.2813     -0.2882     -0.2947     -0.3024     -0.3109     -0.3202     -0.3296    
      -0.3365     -0.3041       0.000      -999.0    
  54   -999.0      0.1390      0.2002      0.1899      0.1509      0.1041      5.7470E-02  1.5661E-02 -8.0645E-03  2.0601E-02
       0.1528      0.3573      0.1711     -3.0875E-02 -0.1213     -0.1685     -0.1646     -0.1614     -0.1617     -0.1643    
      -0.1685     -0.1716     -0.1729     -0.1747     -0.1760     -0.1779     -0.1798     -0.1816     -0.1842     -0.1861    
      -0.1879     -0.1896     -0.1911     -0.1927     -0.1944     -0.1959     -0.1966     -0.1992     -0.2020     -0.2038    
      -0.2052     -0.2064     -0.2078     -0.2097     -0.2115     -0.2125     -0.2155     -0.2197     -0.2248     -0.2285    
      -0.2358     -0.2547     -0.2705     -0.2819     -0.2902     -0.2977     -0.3057     -0.3143     -0.3238     -0.3335    
      -0.3411     -0.3096       0.000      -999.0    
  55   -999.0      0.1228      0.1708      0.1596      0.1233      7.9557E-02  3.4858E-02 -7.5576E-03 -3.5769E-02 -1.2554E-02
       0.1466      0.5319      0.2283     -3.6212E-02 -0.1225     -0.1701     -0.1680     -0.1627     -0.1618     -0.1681    
      -0.1745     -0.1780     -0.1788     -0.1797     -0.1796     -0.1799     -0.1807     -0.1818     -0.1838     -0.1854    
      -0.1871     -0.1886     -0.1902     -0.1920     -0.1941     -0.1963     -0.1982     -0.2003     -0.2024     -0.2041    
      -0.2056     -0.2070     -0.2087     -0.2112     -0.2143     -0.2177     -0.2219     -0.2271     -0.2338     -0.2418    
      -0.2539     -0.2663     -0.2757     -0.2845     -0.2928     -0.3006     -0.3089     -0.3179     -0.3276     -0.3376    
      -0.3461     -0.3153       0.000      -999.0    
  56   -999.0      0.1065      0.1402      0.1273      9.3421E-02  5.2520E-02  9.7892E-03 -3.2994E-02 -6.8617E-02 -7.7287E-02
      -3.8516E-02  1.6779E-02 -3.4759E-02 -9.7491E-02 -0.1314     -0.1521     -0.1601     -0.1634     -0.1657     -0.1690    
      -0.1733     -0.1765     -0.1779     -0.1800     -0.1812     -0.1822     -0.1832     -0.1841     -0.1859     -0.1874    
      -0.1888     -0.1904     -0.1921     -0.1939     -0.1964     -0.1990     -0.2016     -0.2042     -0.2066     -0.2086    
      -0.2102     -0.2118     -0.2137     -0.2167     -0.2207     -0.2253     -0.2307     -0.2368     -0.2443     -0.2545    
      -0.2672     -0.2762     -0.2824     -0.2892     -0.2965     -0.3043     -0.3127     -0.3219     -0.3320     -0.3426    
      -0.3518     -0.3220       0.000      -999.0    
  57   -999.0      8.9827E-02  0.1088      9.3137E-02  6.0798E-02  2.2617E-02 -1.7563E-02 -5.8767E-02 -9.7833E-02 -0.1270    
      -0.1407     -0.1442     -0.1568     -0.1584     -0.1604     -0.1633     -0.1670     -0.1703     -0.1730     -0.1759    
      -0.1798     -0.1830     -0.1846     -0.1870     -0.1886     -0.1899     -0.1911     -0.1921     -0.1940     -0.1956    
      -0.1971     -0.1987     -0.2003     -0.2024     -0.2048     -0.2075     -0.2101     -0.2127     -0.2152     -0.2172    
      -0.2188     -0.2204     -0.2225     -0.2258     -0.2302     -0.2353     -0.2414     -0.2480     -0.2557     -0.2667    
      -0.2788     -0.2855     -0.2900     -0.2954     -0.3019     -0.3092     -0.3176     -0.3270     -0.3375     -0.3487    
      -0.3591     -0.3302       0.000      -999.0    
  58   -999.0      7.3433E-02  7.6984E-02  5.7418E-02  2.6022E-02 -9.7083E-03 -4.6602E-02 -8.3532E-02 -0.1181     -0.1461    
      -0.1645     -0.1744     -0.1853     -0.1837     -0.1818     -0.1816     -0.1829     -0.1848     -0.1865     -0.1887    
      -0.1918     -0.1947     -0.1963     -0.1988     -0.2004     -0.2018     -0.2030     -0.2042     -0.2059     -0.2074    
      -0.2091     -0.2106     -0.2122     -0.2142     -0.2165     -0.2192     -0.2217     -0.2243     -0.2267     -0.2286    
      -0.2303     -0.2317     -0.2339     -0.2372     -0.2418     -0.2471     -0.2534     -0.2600     -0.2678     -0.2787    
      -0.2901     -0.2950     -0.2984     -0.3030     -0.3087     -0.3156     -0.3238     -0.3334     -0.3443     -0.3564    
      -0.3678     -0.3401       0.000      -999.0    
  59   -999.0      5.7375E-02  4.5353E-02  2.0736E-02 -1.0435E-02 -4.3704E-02 -7.6573E-02 -0.1075     -0.1344     -0.1555    
      -0.1700     -0.1799     -0.1913     -0.1940     -0.1956     -0.1970     -0.1987     -0.2003     -0.2018     -0.2038    
      -0.2067     -0.2095     -0.2112     -0.2136     -0.2151     -0.2166     -0.2178     -0.2189     -0.2206     -0.2221    
      -0.2237     -0.2251     -0.2267     -0.2285     -0.2309     -0.2335     -0.2359     -0.2384     -0.2407     -0.2425    
      -0.2440     -0.2455     -0.2476     -0.2509     -0.2554     -0.2607     -0.2668     -0.2732     -0.2804     -0.2907    
      -0.3014     -0.3051     -0.3078     -0.3118     -0.3169     -0.3235     -0.3315     -0.3412     -0.3527     -0.3659    
      -0.3785     -0.3514       0.000      -999.0    
  60   -999.0      4.1863E-02  1.3898E-02 -1.6447E-02 -4.8013E-02 -7.8814E-02 -0.1073     -0.1323     -0.1529     -0.1687    
      -0.1804     -0.1893     -0.2001     -0.2050     -0.2088     -0.2119     -0.2144     -0.2167     -0.2186     -0.2208    
      -0.2236     -0.2264     -0.2283     -0.2306     -0.2324     -0.2339     -0.2351     -0.2362     -0.2378     -0.2392    
      -0.2407     -0.2422     -0.2436     -0.2454     -0.2477     -0.2501     -0.2523     -0.2547     -0.2568     -0.2585    
      -0.2599     -0.2612     -0.2632     -0.2662     -0.2704     -0.2751     -0.2807     -0.2863     -0.2925     -0.3022    
      -0.3125     -0.3157     -0.3179     -0.3216     -0.3265     -0.3330     -0.3410     -0.3510     -0.3632     -0.3774    
      -0.3918     -0.3648       0.000      -999.0    
  61   -999.0      2.5843E-02 -1.8568E-02 -5.5099E-02 -8.7112E-02 -0.1154     -0.1396     -0.1598     -0.1759     -0.1884    
      -0.1981     -0.2059     -0.2154     -0.2207     -0.2254     -0.2292     -0.2326     -0.2353     -0.2376     -0.2398    
      -0.2426     -0.2451     -0.2471     -0.2495     -0.2513     -0.2530     -0.2544     -0.2555     -0.2572     -0.2586    
      -0.2600     -0.2614     -0.2627     -0.2642     -0.2661     -0.2682     -0.2702     -0.2722     -0.2741     -0.2755    
      -0.2767     -0.2779     -0.2796     -0.2821     -0.2856     -0.2897     -0.2945     -0.2990     -0.3039     -0.3122    
      -0.3230     -0.3266     -0.3287     -0.3323     -0.3373     -0.3439     -0.3522     -0.3629     -0.3760     -0.3918    
      -0.4081     -0.3824       0.000      -999.0    
  62   -999.0      5.3047E-03 -5.5847E-02 -9.8083E-02 -0.1305     -0.1562     -0.1766     -0.1927     -0.2052     -0.2148    
      -0.2223     -0.2283     -0.2354     -0.2401     -0.2449     -0.2488     -0.2521     -0.2548     -0.2570     -0.2592    
      -0.2617     -0.2642     -0.2662     -0.2684     -0.2701     -0.2715     -0.2725     -0.2734     -0.2746     -0.2755    
      -0.2766     -0.2776     -0.2787     -0.2799     -0.2815     -0.2833     -0.2850     -0.2868     -0.2884     -0.2897    
      -0.2907     -0.2918     -0.2933     -0.2955     -0.2988     -0.3027     -0.3072     -0.3116     -0.3164     -0.3244    
      -0.3342     -0.3375     -0.3395     -0.3434     -0.3487     -0.3558     -0.3649     -0.3768     -0.3919     -0.4094    
      -0.4280     -0.4042       0.000      -999.0    
  63   -999.0     -9.7050E-03 -7.2112E-02 -0.1148     -0.1457     -0.1692     -0.1874     -0.2016     -0.2127     -0.2216    
      -0.2285     -0.2343     -0.2406     -0.2469     -0.2527     -0.2571     -0.2606     -0.2634     -0.2657     -0.2680    
      -0.2706     -0.2732     -0.2753     -0.2775     -0.2791     -0.2805     -0.2816     -0.2826     -0.2839     -0.2850    
      -0.2861     -0.2872     -0.2884     -0.2897     -0.2912     -0.2931     -0.2948     -0.2966     -0.2983     -0.2996    
      -0.3008     -0.3018     -0.3034     -0.3057     -0.3092     -0.3131     -0.3179     -0.3225     -0.3277     -0.3354    
      -0.3427     -0.3462     -0.3493     -0.3538     -0.3597     -0.3675     -0.3782     -0.3927     -0.4104     -0.4303    
      -0.4505     -0.4277       0.000      -999.0    
  64   -999.0     -4.0477E-02 -9.6584E-02 -0.1365     -0.1655     -0.1874     -0.2041     -0.2171     -0.2272     -0.2353    
      -0.2416     -0.2469     -0.2526     -0.2583     -0.2631     -0.2664     -0.2686     -0.2701     -0.2713     -0.2727    
      -0.2745     -0.2764     -0.2781     -0.2799     -0.2814     -0.2828     -0.2839     -0.2848     -0.2860     -0.2873    
      -0.2884     -0.2895     -0.2906     -0.2918     -0.2933     -0.2950     -0.2966     -0.2981     -0.2995     -0.3005    
      -0.3014     -0.3023     -0.3035     -0.3054     -0.3081     -0.3110     -0.3146     -0.3181     -0.3222     -0.3288    
      -0.3351     -0.3385     -0.3415     -0.3464     -0.3535     -0.3634     -0.3770     -0.3933     -0.4098     -0.4297    
      -0.4482     -0.4276       0.000      -999.0    
  65   -999.0       0.000       0.000       0.000       0.000       0.000       0.000       0.000       0.000       0.000    
        0.000       0.000       0.000       0.000       0.000       0.000       0.000       0.000       0.000       0.000    
        0.000       0.000       0.000       0.000       0.000       0.000       0.000       0.000       0.000       0.000    
        0.000       0.000       0.000       0.000       0.000       0.000       0.000       0.000       0.000       0.000    
        0.000       0.000       0.000       0.000       0.000       0.000       0.000       0.000       0.000       0.000    
        0.000       0.000       0.000       0.000       0.000       0.000       0.000       0.000       0.000       0.000    
        0.000       0.000       0.000      -999.0    
  66   -999.0      -999.0      -999.0      -999.0      -999.0      -999.0      -999.0      -999.0      -999.0      -999.0    
       -999.0      -999.0      -999.0      -999.0      -999.0      -999.0      -999.0      -999.0      -999.0      -999.0    
       -999.0      -999.0      -999.0      -999.0      -999.0      -999.0      -999.0      -999.0      -999.0      -999.0    
       -999.0      -999.0      -999.0      -999.0      -999.0      -999.0      -999.0      -999.0      -999.0      -999.0    
       -999.0      -999.0      -999.0      -999.0      -999.0      -999.0      -999.0      -999.0      -999.0      -999.0    
       -999.0      -999.0      -999.0      -999.0      -999.0      -999.0      -999.0      -999.0      -999.0      -999.0    
       -999.0      -999.0      -999.0      -999.0    

 DRAWDOWN WILL BE SAVED ON UNIT   35 AT END OF TIME STEP   1, STRESS PERIOD    4
1
  VOLUMETRIC BUDGET FOR ENTIRE MODEL AT END OF TIME STEP  1 IN STRESS PERIOD   4
  ------------------------------------------------------------------------------

     CUMULATIVE VOLUMES      L**3       RATES FOR THIS TIME STEP      L**3/T
     ------------------                 ------------------------

           IN:                                      IN:
           ---                                      ---
             STORAGE =    21753556.0000               STORAGE =       70700.7031
       CONSTANT HEAD =      647523.3750         CONSTANT HEAD =       30578.6152
               WELLS =  1574800000.0000                 WELLS =    78740000.0000
            RECHARGE =   256227120.0000              RECHARGE =    12811356.0000

            TOTAL IN =  1853428096.0000              TOTAL IN =    91652640.0000

          OUT:                                     OUT:
          ----                                     ----
             STORAGE =    70946336.0000               STORAGE =     2485724.5000
       CONSTANT HEAD =   207621952.0000         CONSTANT HEAD =    10423914.0000
               WELLS =  1574859904.0000                 WELLS =    78743000.0000
            RECHARGE =           0.0000              RECHARGE =           0.0000

           TOTAL OUT =  1853428224.0000             TOTAL OUT =    91652640.0000

            IN - OUT =        -128.0000              IN - OUT =           0.0000

 PERCENT DISCREPANCY =           0.00     PERCENT DISCREPANCY =           0.00






          TIME SUMMARY AT END OF TIME STEP   1 IN STRESS PERIOD    4
                    SECONDS     MINUTES      HOURS       DAYS        YEARS
                    -----------------------------------------------------------
   TIME STEP LENGTH 1.57788E+08 2.62980E+06  43830.      1826.2      5.0000    
 STRESS PERIOD TIME 1.57788E+08 2.62980E+06  43830.      1826.2      5.0000    
         TOTAL TIME 6.31152E+08 1.05192E+07 1.75320E+05  7305.0      20.000    
1
