MODPATH Version 4.00 (V4, Release 3, 7-2003)                                    

 FILE UNIT NUMBER   9 HAS BEEN CONNECTED TO <DEMO-T.DIS>
 SKIPPING UNRECOGNIZED FILE TYPE: BAS6
 SKIPPING UNRECOGNIZED FILE TYPE: BCF6
 SKIPPING UNRECOGNIZED FILE TYPE: OC
 SKIPPING UNRECOGNIZED FILE TYPE: RCH
 SKIPPING UNRECOGNIZED FILE TYPE: WEL
 SKIPPING UNRECOGNIZED FILE TYPE: SIP
 SKIPPING UNRECOGNIZED FILE TYPE: RIV
 SKIPPING UNRECOGNIZED FILE TYPE: DATA(BINARY)
 SKIPPING UNRECOGNIZED FILE TYPE: DATA(BINARY)
 SKIPPING UNRECOGNIZED FILE TYPE: DATA(BINARY)
 

 DISCRETIZATION INPUT DATA READ FROM UNIT  9
    5 LAYERS        27 ROWS        27 COLUMNS
   3 STRESS PERIOD(S) IN SIMULATION
 MODEL TIME UNIT IS DAYS
 MODEL LENGTH UNIT IS UNDEFINED
  Confining bed flag for each layer:
   1   0   0   0   0
